/*--------------------------------*- C++ -*----------------------------------*\
| =========                 |                                                 |
| \\      /  F ield         | OpenFOAM: The Open Source CFD Toolbox           |
|  \\    /   O peration     | Version:  2.2.2                                 |
|   \\  /    A nd           | Web:      www.OpenFOAM.org                      |
|    \\/     M anipulation  |                                                 |
\*---------------------------------------------------------------------------*/
FoamFile
{
    version     2.0;
    format      ascii;
    class       dictionary;
    object      controlDict;
}
// * * * * * * * * * * * * * * * * * * * * * * * * * * * * * * * * * * * * * //

application     simpleFoam;

startFrom       latestTime;

startTime       0;

stopAt          endTime;

endTime         50; // Was 5000

deltaT          0.1;

writeControl    timeStep;

writeInterval   10;

purgeWrite      0;

writeFormat     ascii;

writePrecision  12;

writeCompression uncompressed;

timeFormat      general;

timePrecision   6;

runTimeModifiable true;

adjustTimeStep  true;

maxCo           0.9;

libs
(
    "libOpenFOAM.so"
    "libincompressibleRASModels.so"
    "libgroovyBC.so" 
    "libsimpleSwakFunctionObjects.so" 
    "libswakFunctionObjects.so"
);

functions
{
    planeAverage
    {
        type swakExpression;
        outputControlMode timeStep;
        outputInterval 1;
        valueType surface;
        surfaceName testPlane;
        surface {
            type plane;
            basePoint (0.0 0.0 0.0);
            normalVector (1 0 0);
            interpolate true;
        };
        verbose true;
        expression "U.x";
        accumulations (weightedAverage);
    }

}

// ************************************************************************* //
