/*--------------------------------*- C++ -*----------------------------------*\
| =========                 |                                                 |
| \\      /  F ield         | OpenFOAM: The Open Source CFD Toolbox           |
|  \\    /   O peration     | Version:  2.3.x                                 |
|   \\  /    A nd           | Web:      www.OpenFOAM.org                      |
|    \\/     M anipulation  |                                                 |
\*---------------------------------------------------------------------------*/
FoamFile
{
    version     2.0;
    format      ascii;
    class       dictionary;
    object      controlDict;
}
// * * * * * * * * * * * * * * * * * * * * * * * * * * * * * * * * * * * * * //

application     simpleFoam;

startFrom       latestTime;

startTime       0;

stopAt          endTime;

endTime         2000; // Was 5000

deltaT          1;

writeControl    timeStep;

writeInterval   10;

purgeWrite      1;

writeFormat     ascii;

writePrecision  12;

writeCompression uncompressed;

timeFormat      general;

timePrecision   6;

runTimeModifiable true;

adjustTimeStep  true;

maxCo           0.9;

libs
(
    "libOpenFOAM.so"
    "libincompressibleRASModels.so"
    "libgroovyBC.so" 
    "libsimpleSwakFunctionObjects.so" 
    "libswakFunctionObjects.so"
    "libswakFvOptions.so"
);

functions
{

    pressureGradient
    {
        type expressionField;
        outputControl outputTime;
        fieldName gradP;
        dimension [1 -2 -2 0 0 0 0];
        expression "grad(p)";
        autowrite true;        
    }

    gradUx
    {
        type expressionField;
        outputControl outputTime;
        fieldName gradUx;
        dimension [0 0 -1 0 0 0 0];
        expression "grad(U.x)";
        autowrite true;        
    }

    laplacianUx
    {
        type expressionField;
        outputControl outputTime;
        fieldName laplacianUx;
        dimension [0 -1 -1 0 0 0 0];
        expression "laplacian(U.x)";
        autowrite true;        
    }

//    #include "funkyDoCalcDict"

}

// ************************************************************************* //
