/*--------------------------------*- C++ -*----------------------------------*\
| =========                 |                                                 |
| \\      /  F ield         | OpenFOAM: The Open Source CFD Toolbox           |
|  \\    /   O peration     | Version:  2.2.2                                 |
|   \\  /    A nd           | Web:      www.OpenFOAM.org                      |
|    \\/     M anipulation  |                                                 |
\*---------------------------------------------------------------------------*/
FoamFile
{
    version     2.0;
    format      ascii;
    class       dictionary;
    location    "system";
    object      fvOptions;
}
// * * * * * * * * * * * * * * * * * * * * * * * * * * * * * * * * * * * * * //

disk1
{
    type            actuationDiskSource;
    active          on;            //on/off switch
    selectionMode   cellSet;       //cellSet // points //cellZone
    cellSet         actuatorDisk;//cellSet name when selectionMode = cellSet

    actuationDiskSourceCoeffs
    {
        fieldNames  (U);
        diskDir     (1 0 0);   // orientation of the disk
        Cp          0.70;      // Cp
        Ct          1.38;       // Ct
        diskArea    0.10;         // disk area
        upstreamPoint (-1.0 0 0);
    }
}
/*
turbSource
{
    type            scalarSemiImplicitSource;
    active          on;
    selectionMode   cellSet;
    cellSet         actuatorDisk;

    scalarSemiImplicitSourceCoeffs
    {
        volumeMode      absolute; // specific
        injectionRateSuSp
        {
            k           (300.7 0);
           // epsilon     (1.5  0);
        }
    }
}
*/
// ************************************************************************* //
