/*--------------------------------*- C++ -*----------------------------------*\
| =========                 |                                                 |
| \\      /  F ield         | OpenFOAM: The Open Source CFD Toolbox           |
|  \\    /   O peration     | Version:  2.3.x                                 |
|   \\  /    A nd           | Web:      www.OpenFOAM.org                      |
|    \\/     M anipulation  |                                                 |
\*---------------------------------------------------------------------------*/
FoamFile
{
    version     2.0;
    format      ascii;
    class       dictionary;
    location    "system";
    object      fvOptions;
}
// * * * * * * * * * * * * * * * * * * * * * * * * * * * * * * * * * * * * * //

disk1
{
    type            actuationDiskSource;
    active          on;            //on/off switch
    selectionMode   cellSet;       //cellSet // points //cellZone
    cellSet         actuatorDisk;//cellSet name when selectionMode = cellSet

    actuationDiskSourceCoeffs
    {
        fieldNames  (U);
        diskDir     (1 0 0);   // orientation of the disk
        Cp          0.26;      // Cp
        Ct          0.96;       // Ct
        diskArea    1.0;         // disk area
        upstreamPoint (-1.0 0 0);
    }
}

kSource 
{
    type scalarExplicitSetValue;
    active true;
    selectionMode cellSet;
    cellSet actuatorDisk;

    scalarExplicitSetValueCoeffs
    {
        volumeMode      absolute; //specific
        injectionRate
        {
            k   0.2;
        }
    }
}

// ************************************************************************* //
