/*--------------------------------*- C++ -*----------------------------------*\
| =========                 |                                                 |
| \\      /  F ield         | OpenFOAM: The Open Source CFD Toolbox           |
|  \\    /   O peration     | Version:  2.2.2                                 |
|   \\  /    A nd           | Web:      www.OpenFOAM.org                      |
|    \\/     M anipulation  |                                                 |
\*---------------------------------------------------------------------------*/
FoamFile
{
    version     2.0;
    format      ascii;
    class       dictionary;
    object      sampleDict;
}
// * * * * * * * * * * * * * * * * * * * * * * * * * * * * * * * * * * * * //

setFormat raw;

interpolationScheme cellPoint; // Was cellPoint

sets
(
    profile
    {
        type        uniform;
        axis        y;
        start       (1.0 -1.5 0);
        end         (1.0 1.5 0);
        nPoints     100;
    }
);

fields
(
    U
    uprime
    R
);

// *********************************************************************** //
